136086941
  -OEChem-01122508233D

 25 26  0     0  0  0  0  0  0999 V2000
    3.7772   -1.1088   -0.0046 O   0  0  0  0  0  0  0  0  0  0  0  0
   -3.0070   -2.1789    0.0023 O   0  0  0  0  0  0  0  0  0  0  0  0
    0.7358    0.6848   -0.0018 N   0  0  0  0  0  0  0  0  0  0  0  0
   -3.2736    0.1237    0.0012 N   0  0  0  0  0  0  0  0  0  0  0  0
   -0.2991   -1.9284    0.0012 N   0  0  0  0  0  0  0  0  0  0  0  0
   -1.4266    1.5883   -0.0012 N   0  0  0  0  0  0  0  0  0  0  0  0
   -3.6129    2.4384   -0.0009 N   0  0  0  0  0  0  0  0  0  0  0  0
   -1.0847   -0.8341    0.0007 C   0  0  0  0  0  0  0  0  0  0  0  0
   -0.5941    0.4581   -0.0008 C   0  0  0  0  0  0  0  0  0  0  0  0
    1.5331   -0.4047   -0.0013 C   0  0  0  0  0  0  0  0  0  0  0  0
    3.4994    1.2843   -0.0050 C   0  0  0  0  0  0  0  0  0  0  0  0
    2.9630   -0.1603   -0.0034 C   0  0  0  0  0  0  0  0  0  0  0  0
   -2.5352   -1.0490    0.0020 C   0  0  0  0  0  0  0  0  0  0  0  0
    1.0254   -1.6864    0.0001 C   0  0  0  0  0  0  0  0  0  0  0  0
   -2.7182    1.4010   -0.0002 C   0  0  0  0  0  0  0  0  0  0  0  0
    5.0175    1.3718    0.0118 C   0  0  0  0  0  0  0  0  0  0  0  0
    3.1229    1.7864   -0.9031 H   0  0  0  0  0  0  0  0  0  0  0  0
    3.1040    1.7961    0.8793 H   0  0  0  0  0  0  0  0  0  0  0  0
    1.6535   -2.5696    0.0003 H   0  0  0  0  0  0  0  0  0  0  0  0
   -4.2863    0.0451    0.0017 H   0  0  0  0  0  0  0  0  0  0  0  0
    5.4280    0.8863    0.9032 H   0  0  0  0  0  0  0  0  0  0  0  0
    5.4480    0.8802   -0.8667 H   0  0  0  0  0  0  0  0  0  0  0  0
    5.3392    2.4177    0.0117 H   0  0  0  0  0  0  0  0  0  0  0  0
   -3.2988    3.4028   -0.0021 H   0  0  0  0  0  0  0  0  0  0  0  0
   -4.6136    2.2741   -0.0003 H   0  0  0  0  0  0  0  0  0  0  0  0
  1 12  2  0  0  0  0
  2 13  2  0  0  0  0
  3  9  2  0  0  0  0
  3 10  1  0  0  0  0
  4 13  1  0  0  0  0
  4 15  1  0  0  0  0
  4 20  1  0  0  0  0
  5  8  2  0  0  0  0
  5 14  1  0  0  0  0
  6  9  1  0  0  0  0
  6 15  2  0  0  0  0
  7 15  1  0  0  0  0
  7 24  1  0  0  0  0
  7 25  1  0  0  0  0
  8  9  1  0  0  0  0
  8 13  1  0  0  0  0
 10 12  1  0  0  0  0
 10 14  2  0  0  0  0
 11 12  1  0  0  0  0
 11 16  1  0  0  0  0
 11 17  1  0  0  0  0
 11 18  1  0  0  0  0
 14 19  1  0  0  0  0
 16 21  1  0  0  0  0
 16 22  1  0  0  0  0
 16 23  1  0  0  0  0
M  END
> <PUBCHEM_COMPOUND_CID>
136086941

> <PUBCHEM_CONFORMER_RMSD>
0.6

> <PUBCHEM_CONFORMER_DIVERSEORDER>
1
5
7
6
8
3
4
2

> <PUBCHEM_MMFF94_PARTIAL_CHARGES>
19
1 -0.57
10 0.4
11 0.06
12 0.42
13 0.54
14 0.16
15 0.56
19 0.15
2 -0.57
20 0.37
24 0.4
25 0.4
3 -0.62
4 -0.49
5 -0.62
6 -0.63
7 -0.85
8 0.4
9 0.49

> <PUBCHEM_EFFECTIVE_ROTOR_COUNT>
2

> <PUBCHEM_PHARMACOPHORE_FEATURES>
9
1 1 acceptor
1 16 hydrophobe
1 2 acceptor
1 4 donor
1 5 acceptor
1 7 donor
3 3 6 9 cation
6 3 5 8 9 10 14 rings
6 4 6 8 9 13 15 rings

> <PUBCHEM_HEAVY_ATOM_COUNT>
16

> <PUBCHEM_ATOM_DEF_STEREO_COUNT>
0

> <PUBCHEM_ATOM_UDEF_STEREO_COUNT>
0

> <PUBCHEM_BOND_DEF_STEREO_COUNT>
0

> <PUBCHEM_BOND_UDEF_STEREO_COUNT>
0

> <PUBCHEM_ISOTOPIC_ATOM_COUNT>
0

> <PUBCHEM_COMPONENT_COUNT>
1

> <PUBCHEM_CACTVS_TAUTO_COUNT>
-1

> <PUBCHEM_CONFORMER_ID>
081C859D00000001

> <PUBCHEM_MMFF94_ENERGY>
37.6349

> <PUBCHEM_FEATURE_SELFOVERLAP>
45.761

> <PUBCHEM_SHAPE_FINGERPRINT>
10411042 1 17474108078056272502
10608611 8 18412261718578875856
10967382 1 18194402186606303109
11132069 177 18407757027961324852
12173636 292 18411134740413598876
12346645 44 18408321086063638474
12390115 104 18271263662958107096
12932764 1 17386280987561898046
13140716 1 18263363590323800378
13380535 21 18340775823305879875
13380535 76 18268426833080363423
14325111 11 18410856555687733124
14897335 6 18338513015606819247
15196674 1 18410855451585706468
15219456 202 18272939306162830694
15442244 35 18336825274096297426
15536298 74 18412827976105430118
16945 1 18122344579857708999
1741750 31 18271246006616227777
17834072 32 18337955588712938829
18186145 218 18130238090092925120
20510252 161 18342461477499323530
20645477 56 18337115562098051061
21501502 16 18337665330485637082
23366157 5 18041563521238374122
23402539 116 18267858561340774238
23463225 33 18335136445526253562
23557571 272 18272101534126425812
23559900 14 18200029530942945278
2748010 2 18339651044285391871
335352 9 18194401083174365278
4214541 1 18410855452102801060
474 4 17097215167795202164
5104073 3 18409448077145226826
7364860 26 18052256194023755254
77779 3 18410857668374348196
9709674 26 18411425046408007406

> <PUBCHEM_SHAPE_MULTIPOLES>
292.63
7.71
2.29
0.58
6.04
0.13
0
3.25
0.01
-1.52
0
0.04
0
0.01

> <PUBCHEM_SHAPE_SELFOVERLAP>
629.957

> <PUBCHEM_SHAPE_VOLUME>
159.7

> <PUBCHEM_COORDINATE_TYPE>
2
5
10

$$$$
